Networks/MV_SemiUrban/SemiUrban_LinesLaterals2.txt
New Line.Feeder2.1      Bus1=Main_Busbar Bus2=2_1       Length=1    units=m Linecode=Line_MV_185
New Line.Feeder2.2      Bus1=2_1         Bus2=2_2       Length=1    units=m Linecode=Line_MV_185
New Line.Feeder2.3      Bus1=2_2         Bus2=2_3       Length=1    units=m Linecode=Line_MV_185
New Line.Feeder2.4      Bus1=2_3         Bus2=2_4       Length=1    units=m Linecode=Line_MV_185
New Line.Feeder2.5      Bus1=2_4         Bus2=2_5       Length=1    units=m Linecode=Line_MV_185
New Line.Feeder2.6      Bus1=2_5         Bus2=2_6       Length=1    units=m Linecode=Line_MV_185
New Line.Feeder2.7      Bus1=2_6         Bus2=2_7       Length=1    units=m Linecode=Line_MV_185
New Line.Feeder2.8      Bus1=2_7         Bus2=2_8       Length=1    units=m Linecode=Line_MV_185
New Line.Feeder2.9      Bus1=2_8         Bus2=2_9       Length=1    units=m Linecode=Line_MV_185
New Line.Feeder2.10     Bus1=2_9         Bus2=2_10      Length=1    units=m Linecode=Line_MV_185
New Line.Feeder2.11	Bus1=2_10       Bus2=2_11	Length=1    units=m Linecode=Line_MV_185
New Line.Feeder2.12	Bus1=2_11	Bus2=2_12	Length=1    units=m Linecode=Line_MV_185
New Line.Feeder2.13	Bus1=2_12	Bus2=2_13	Length=1	units=m	Linecode=Line_MV_185
New Line.Feeder2.14	Bus1=2_13	Bus2=2_14	Length=1	units=m	Linecode=Line_MV_185
New Line.Feeder2.15	Bus1=2_14	Bus2=2_15	Length=1	units=m	Linecode=Line_MV_185
New Line.Feeder2.16	Bus1=2_15	Bus2=2_16	Length=1	units=m	Linecode=Line_MV_185
New Line.Feeder2.17	Bus1=2_16	Bus2=2_17	Length=1	units=m	Linecode=Line_MV_185
New Line.Feeder2.18	Bus1=2_17	Bus2=2_18	Length=1	units=m	Linecode=Line_MV_185
New Line.Feeder2.19	Bus1=2_18	Bus2=2_19	Length=1	units=m	Linecode=Line_MV_185
New Line.Feeder2.20	Bus1=2_19	Bus2=2_20	Length=1	units=m	Linecode=Line_MV_185
New Line.Feeder2.21	Bus1=2_20	Bus2=2_21	Length=1	units=m	Linecode=Line_MV_185
New Line.Feeder2.22	Bus1=2_21	Bus2=2_22	Length=1	units=m	Linecode=Line_MV_185
New Line.Feeder2.23	Bus1=2_22	Bus2=2_23	Length=1	units=m	Linecode=Line_MV_185
New Line.Feeder2.24	Bus1=2_23	Bus2=2_24	Length=1	units=m	Linecode=Line_MV_185
New Line.Feeder2.25	Bus1=2_24	Bus2=2_25	Length=1	units=m	Linecode=Line_MV_185
New Line.Feeder2.26	Bus1=2_25	Bus2=2_26	Length=1	units=m	Linecode=Line_MV_185
New Line.Feeder2.27	Bus1=2_26	Bus2=2_27	Length=1	units=m	Linecode=Line_MV_185
New Line.Feeder2.28	Bus1=2_27	Bus2=2_28	Length=1	units=m	Linecode=Line_MV_185
New Line.Feeder2.29	Bus1=2_28	Bus2=2_29	Length=1	units=m	Linecode=Line_MV_185
New Line.Feeder2.30	Bus1=2_29	Bus2=2_30	Length=1	units=m	Linecode=Line_MV_185
New Line.Feeder2.31	Bus1=2_30	Bus2=2_31	Length=1	units=m	Linecode=Line_MV_185
New Line.Feeder2.32	Bus1=2_31	Bus2=2_32	Length=1	units=m	Linecode=Line_MV_185
New Line.Feeder2.33	Bus1=2_32	Bus2=2_33	Length=1	units=m	Linecode=Line_MV_185
New Line.Feeder2.34	Bus1=2_33	Bus2=2_34	Length=1	units=m	Linecode=Line_MV_185
New Line.Feeder2.35	Bus1=2_34	Bus2=2_35	Length=1	units=m	Linecode=Line_MV_185
New Line.Feeder2.36	Bus1=2_35	Bus2=2_36	Length=1	units=m	Linecode=Line_MV_185
New Line.Feeder2.37	Bus1=2_36	Bus2=2_37	Length=1	units=m	Linecode=Line_MV_185
New Line.Feeder2.38	Bus1=2_37	Bus2=2_38	Length=1	units=m	Linecode=Line_MV_185
New Line.Feeder2.39	Bus1=2_38	Bus2=2_39	Length=1	units=m	Linecode=Line_MV_185
New Line.Feeder2.40	Bus1=2_39	Bus2=2_40	Length=1	units=m	Linecode=Line_MV_185
New Line.Feeder2.41	Bus1=2_40	Bus2=2_41	Length=1	units=m	Linecode=Line_MV_185
New Line.Feeder2.42	Bus1=2_41	Bus2=2_42	Length=1	units=m	Linecode=Line_MV_185
New Line.Feeder2.43	Bus1=2_42	Bus2=2_43	Length=1	units=m	Linecode=Line_MV_185
New Line.Feeder2.44	Bus1=2_43	Bus2=2_44	Length=1	units=m	Linecode=Line_MV_185
New Line.Feeder2.45	Bus1=2_44	Bus2=2_45	Length=1	units=m	Linecode=Line_MV_185
New Line.Feeder2.46	Bus1=2_45	Bus2=2_46	Length=1	units=m	Linecode=Line_MV_185
New Line.Feeder2.47	Bus1=2_46	Bus2=2_47	Length=1	units=m	Linecode=Line_MV_185
New Line.Feeder2.48	Bus1=2_47	Bus2=2_48	Length=1	units=m	Linecode=Line_MV_185


New Line.Lateral2_start_1	Bus1=2_47	Bus2=2_49	Length=1 units=m	Linecode=Line_MV_95
New Line.Lateral2.50	Bus1=2_49	Bus2=2_50	Length=1	units=m	Linecode=Line_MV_95
New Line.Lateral2.51	Bus1=2_50	Bus2=2_51	Length=1	units=m	Linecode=Line_MV_95
New Line.Lateral2.52	Bus1=2_51	Bus2=2_52	Length=1	units=m	Linecode=Line_MV_95
New Line.Lateral2.53	Bus1=2_52	Bus2=2_53	Length=1	units=m	Linecode=Line_MV_95
New Line.Lateral2.54	Bus1=2_53	Bus2=2_54	Length=1	units=m	Linecode=Line_MV_95
New Line.Lateral2.55	Bus1=2_54	Bus2=2_55	Length=1	units=m	Linecode=Line_MV_95
New Line.Lateral2.56	Bus1=2_55	Bus2=2_56	Length=1	units=m	Linecode=Line_MV_95
New Line.Lateral2.57	Bus1=2_56	Bus2=2_57	Length=1	units=m	Linecode=Line_MV_95
New Line.Lateral2.58	Bus1=2_57	Bus2=2_58	Length=1	units=m	Linecode=Line_MV_95
New Line.Lateral2.59	Bus1=2_58	Bus2=2_59	Length=1	units=m	Linecode=Line_MV_95
New Line.Lateral2.60	Bus1=2_59	Bus2=2_60	Length=1	units=m	Linecode=Line_MV_95
New Line.Lateral2.61	Bus1=2_60       Bus2=2_61	Length=1        units=m Linecode=Line_MV_95
New Line.Lateral2.62	Bus1=2_61	Bus2=2_62	Length=1	units=m	Linecode=Line_MV_95
New Line.Lateral2.63	Bus1=2_62	Bus2=2_63	Length=1	units=m	Linecode=Line_MV_95
New Line.Lateral2.64	Bus1=2_63	Bus2=2_64	Length=1	units=m	Linecode=Line_MV_95
New Line.Lateral2.65	Bus1=2_64	Bus2=2_65	Length=1	units=m	Linecode=Line_MV_95
New Line.Lateral2.66	Bus1=2_65	Bus2=2_66	Length=1	units=m	Linecode=Line_MV_95
New Line.Lateral2.67	Bus1=2_66	Bus2=2_67	Length=1	units=m	Linecode=Line_MV_95
New Line.Lateral2.68	Bus1=2_67	Bus2=2_68	Length=1	units=m	Linecode=Line_MV_95
New Line.Lateral2.69	Bus1=2_68	Bus2=2_69	Length=1	units=m	Linecode=Line_MV_95
New Line.Lateral2.70	Bus1=2_69	Bus2=2_70	Length=1	units=m	Linecode=Line_MV_95
New Line.Lateral2.71	Bus1=2_70	Bus2=2_71	Length=1	units=m	Linecode=Line_MV_95
New Line.Lateral2.72	Bus1=2_71	Bus2=2_72	Length=1	units=m	Linecode=Line_MV_95
New Line.Lateral2.73	Bus1=2_72	Bus2=2_73	Length=1	units=m	Linecode=Line_MV_95
New Line.Lateral2.74	Bus1=2_73	Bus2=2_74	Length=1	units=m	Linecode=Line_MV_95
New Line.Lateral2.75	Bus1=2_74	Bus2=2_75	Length=1	units=m	Linecode=Line_MV_95
New Line.Lateral2.76	Bus1=2_75	Bus2=2_76	Length=1	units=m	Linecode=Line_MV_95
New Line.Lateral2.77	Bus1=2_76	Bus2=2_77	Length=1	units=m	Linecode=Line_MV_95
New Line.Lateral2.78	Bus1=2_77	Bus2=2_78	Length=1	units=m	Linecode=Line_MV_95
New Line.Lateral2.79	Bus1=2_78	Bus2=2_79	Length=1	units=m	Linecode=Line_MV_95
New Line.Lateral2.80	Bus1=2_79	Bus2=2_80	Length=1	units=m	Linecode=Line_MV_95
New Line.Lateral2.81	Bus1=2_80	Bus2=2_81	Length=1	units=m	Linecode=Line_MV_95
New Line.Lateral2.82	Bus1=2_81	Bus2=2_82	Length=1	units=m	Linecode=Line_MV_95
New Line.Lateral2.83	Bus1=2_82	Bus2=2_83	Length=1	units=m	Linecode=Line_MV_95
New Line.Lateral2.84	Bus1=2_83	Bus2=2_84	Length=1	units=m	Linecode=Line_MV_95
New Line.Lateral2.85	Bus1=2_84	Bus2=2_85	Length=1	units=m	Linecode=Line_MV_95
New Line.Lateral2.86	Bus1=2_85	Bus2=2_86	Length=1	units=m	Linecode=Line_MV_95
New Line.Lateral2.87	Bus1=2_86	Bus2=2_87	Length=1	units=m	Linecode=Line_MV_95
New Line.Lateral2.88	Bus1=2_87	Bus2=2_88	Length=1	units=m	Linecode=Line_MV_95
New Line.Lateral2.89	Bus1=2_88	Bus2=2_89	Length=1	units=m	Linecode=Line_MV_95
New Line.Lateral2.90	Bus1=2_89	Bus2=2_90	Length=1	units=m	Linecode=Line_MV_95 
New Line.Lateral2.91	Bus1=2_90       Bus2=2_91	Length=1        units=m Linecode=Line_MV_95
New Line.Lateral2.92	Bus1=2_91	Bus2=2_92	Length=1	units=m	Linecode=Line_MV_95
New Line.Lateral2.93	Bus1=2_92	Bus2=2_93	Length=1	units=m	Linecode=Line_MV_95
New Line.Lateral2.94	Bus1=2_93	Bus2=2_94	Length=1	units=m	Linecode=Line_MV_95
New Line.Lateral2.95	Bus1=2_94	Bus2=2_95	Length=1	units=m	Linecode=Line_MV_95
New Line.Lateral2.96	Bus1=2_95	Bus2=2_96	Length=1	units=m	Linecode=Line_MV_95
New Line.Lateral2.97	Bus1=2_96       Bus2=2_97	Length=1	units=m	Linecode=Line_MV_95
New Line.Lateral2.98	Bus1=2_97       Bus2=2_98	Length=1	units=m	Linecode=Line_MV_95
New Line.Lateral2.99	Bus1=2_98       Bus2=2_99       Length=1	units=m	Linecode=Line_MV_95
New Line.Lateral2.100	Bus1=2_99       Bus2=2_100      Length=1        units=m Linecode=Line_MV_95
New Line.Lateral2.101	Bus1=2_100      Bus2=2_101      Length=1        units=m Linecode=Line_MV_95
New Line.Lateral2.102	Bus1=2_101      Bus2=2_102      Length=1        units=m Linecode=Line_MV_95
New Line.Lateral2.103	Bus1=2_102      Bus2=2_103      Length=1        units=m Linecode=Line_MV_95
New Line.Lateral2.104	Bus1=2_103      Bus2=2_104      Length=1        units=m Linecode=Line_MV_95
New Line.Lateral2.105	Bus1=2_104      Bus2=2_105      Length=1        units=m Linecode=Line_MV_95
New Line.Lateral2.106	Bus1=2_105 Bus2=2_106 Length=1  units=m Linecode=Line_MV_95
New Line.Lateral2.107	Bus1=2_106 Bus2=2_107 Length=1  units=m Linecode=Line_MV_95
New Line.Lateral2.108	Bus1=2_107 Bus2=2_108 Length=1	units=m	Linecode=Line_MV_95
New Line.Lateral2.109	Bus1=2_108 Bus2=2_109 Length=1	units=m	Linecode=Line_MV_95
New Line.Lateral2.110	Bus1=2_109 Bus2=2_110 Length=1	units=m	Linecode=Line_MV_95
New Line.Lateral2.111	Bus1=2_110 Bus2=2_111 Length=1	units=m	Linecode=Line_MV_95
New Line.Lateral2.112	Bus1=2_111 Bus2=2_112 Length=1	units=m	Linecode=Line_MV_95
New Line.Lateral2.113	Bus1=2_112 Bus2=2_113 Length=1	units=m	Linecode=Line_MV_95
New Line.Lateral2.114	Bus1=2_113 Bus2=2_114 Length=1	units=m	Linecode=Line_MV_95
New Line.Lateral2.115	Bus1=2_114 Bus2=2_115 Length=1	units=m	Linecode=Line_MV_95
New Line.Lateral2.116	Bus1=2_115 Bus2=2_116 Length=1	units=m	Linecode=Line_MV_95
New Line.Lateral2.117	Bus1=2_116 Bus2=2_117 Length=1	units=m	Linecode=Line_MV_95
New Line.Lateral2.118	Bus1=2_117 Bus2=2_118 Length=1	units=m	Linecode=Line_MV_95
New Line.Lateral2.119	Bus1=2_118 Bus2=2_119 Length=1	units=m	Linecode=Line_MV_95
New Line.Lateral2.120	Bus1=2_119 Bus2=2_120 Length=1	units=m	Linecode=Line_MV_95
New Line.Lateral2.121	Bus1=2_120 Bus2=2_121 Length=1  units=m Linecode=Line_MV_95
New Line.Lateral2.122	Bus1=2_121 Bus2=2_122 Length=1	units=m	Linecode=Line_MV_95
New Line.Lateral2.123	Bus1=2_122 Bus2=2_123 Length=1	units=m	Linecode=Line_MV_95
New Line.Lateral2.124	Bus1=2_123 Bus2=2_124 Length=1	units=m	Linecode=Line_MV_95
New Line.Lateral2.125	Bus1=2_124 Bus2=2_125 Length=1	units=m	Linecode=Line_MV_95
New Line.Lateral2.126	Bus1=2_125 Bus2=2_126 Length=1	units=m	Linecode=Line_MV_95
New Line.Lateral2.127	Bus1=2_126 Bus2=2_127 Length=1	units=m	Linecode=Line_MV_95
New Line.Lateral2.128	Bus1=2_127 Bus2=2_128 Length=1	units=m	Linecode=Line_MV_95
New Line.Lateral2.129	Bus1=2_128 Bus2=2_129 Length=1	units=m	Linecode=Line_MV_95
New Line.Lateral2.130	Bus1=2_129 Bus2=2_130 Length=1	units=m	Linecode=Line_MV_95
New Line.Lateral2.131	Bus1=2_130 Bus2=2_131 Length=1	units=m	Linecode=Line_MV_95
New Line.Lateral2.132	Bus1=2_131 Bus2=2_132 Length=1	units=m	Linecode=Line_MV_95
New Line.Lateral2.133	Bus1=2_132 Bus2=2_133 Length=1	units=m	Linecode=Line_MV_95
New Line.Lateral2.134	Bus1=2_133 Bus2=2_134 Length=1	units=m	Linecode=Line_MV_95
New Line.Lateral2.135	Bus1=2_134 Bus2=2_135 Length=1	units=m	Linecode=Line_MV_95
New Line.Lateral2.136	Bus1=2_135 Bus2=2_136 Length=1	units=m	Linecode=Line_MV_95
New Line.Lateral2.137	Bus1=2_136 Bus2=2_137 Length=1	units=m	Linecode=Line_MV_95
New Line.Lateral2.138	Bus1=2_137 Bus2=2_138 Length=1	units=m	Linecode=Line_MV_95
New Line.Lateral2.139	Bus1=2_138 Bus2=2_139 Length=1	units=m	Linecode=Line_MV_95
New Line.Lateral2.140	Bus1=2_139 Bus2=2_140 Length=1	units=m	Linecode=Line_MV_95
New Line.Lateral2.141	Bus1=2_140 Bus2=2_141 Length=1	units=m	Linecode=Line_MV_95
New Line.Lateral2.142	Bus1=2_141 Bus2=2_142 Length=1	units=m	Linecode=Line_MV_95
New Line.Lateral2.143	Bus1=2_142 Bus2=2_143 Length=1	units=m	Linecode=Line_MV_95
New Line.Lateral2.144	Bus1=2_143 Bus2=2_144 Length=1	units=m	Linecode=Line_MV_95
New Line.Lateral2.145	Bus1=2_144 Bus2=2_145 Length=1	units=m	Linecode=Line_MV_95
New Line.Lateral2.146	Bus1=2_145 Bus2=2_146 Length=1	units=m	Linecode=Line_MV_95
New Line.Lateral2.147	Bus1=2_146 Bus2=2_147 Length=1	units=m	Linecode=Line_MV_95
New Line.Lateral2.148	Bus1=2_147 Bus2=2_148 Length=1	units=m	Linecode=Line_MV_95
New Line.Lateral2.149	Bus1=2_148 Bus2=2_149 Length=1	units=m	Linecode=Line_MV_95
New Line.Lateral2.150	Bus1=2_149 Bus2=2_150 Length=1	units=m	Linecode=Line_MV_95
New Line.Lateral2.151	Bus1=2_150 Bus2=2_151 Length=1  units=m Linecode=Line_MV_95
New Line.Lateral2.152	Bus1=2_151 Bus2=2_152 Length=1	units=m	Linecode=Line_MV_95
New Line.Lateral2.153	Bus1=2_152 Bus2=2_153 Length=1	units=m	Linecode=Line_MV_95
New Line.Lateral2.154	Bus1=2_153 Bus2=2_154 Length=1	units=m	Linecode=Line_MV_95
New Line.Lateral2.155	Bus1=2_154 Bus2=2_155 Length=1	units=m	Linecode=Line_MV_95
New Line.Lateral2.156	Bus1=2_155 Bus2=2_156 Length=1	units=m	Linecode=Line_MV_95
New Line.Lateral2.157	Bus1=2_156 Bus2=2_157 Length=1	units=m	Linecode=Line_MV_95
New Line.Lateral2.158	Bus1=2_157 Bus2=2_158 Length=1	units=m	Linecode=Line_MV_95
New Line.Lateral2.159	Bus1=2_158 Bus2=2_159 Length=1	units=m	Linecode=Line_MV_95
New Line.Lateral2.160	Bus1=2_159 Bus2=2_160 Length=1	units=m	Linecode=Line_MV_95
New Line.Lateral2.161	Bus1=2_160 Bus2=2_161 Length=1	units=m	Linecode=Line_MV_95
New Line.Lateral2.162	Bus1=2_161 Bus2=2_162 Length=1	units=m	Linecode=Line_MV_95
New Line.Lateral2.163	Bus1=2_162 Bus2=2_163 Length=1	units=m	Linecode=Line_MV_95
New Line.Lateral2.164	Bus1=2_163 Bus2=2_164 Length=1	units=m	Linecode=Line_MV_95
New Line.Lateral2.165	Bus1=2_164 Bus2=2_165 Length=1	units=m	Linecode=Line_MV_95
New Line.Lateral2.166	Bus1=2_165 Bus2=2_166 Length=1	units=m	Linecode=Line_MV_95
New Line.Lateral2.167	Bus1=2_166 Bus2=2_167 Length=1	units=m	Linecode=Line_MV_95
New Line.Lateral2.168	Bus1=2_167 Bus2=2_168 Length=1	units=m	Linecode=Line_MV_95
New Line.Lateral2.169	Bus1=2_168 Bus2=2_169 Length=1	units=m	Linecode=Line_MV_95
New Line.Lateral2.170	Bus1=2_169 Bus2=2_170 Length=1	units=m	Linecode=Line_MV_95
New Line.Lateral2.171	Bus1=2_170 Bus2=2_171 Length=1	units=m	Linecode=Line_MV_95
New Line.Lateral2.172	Bus1=2_171 Bus2=2_172 Length=1	units=m	Linecode=Line_MV_95
New Line.Lateral2.173	Bus1=2_172 Bus2=2_173 Length=1	units=m	Linecode=Line_MV_95
New Line.Lateral2.174	Bus1=2_173 Bus2=2_174 Length=1	units=m	Linecode=Line_MV_95
New Line.Lateral2.175	Bus1=2_174 Bus2=2_175 Length=1	units=m	Linecode=Line_MV_95
New Line.Lateral2.176	Bus1=2_175 Bus2=2_176 Length=1	units=m	Linecode=Line_MV_95
New Line.Lateral2.177 Bus1=2_176 Bus2=2_177 units=m Linecode=Line_MV_95 Length=1
New Line.Lateral2.178 Bus1=2_177 Bus2=2_178 units=m Linecode=Line_MV_95 Length=1 
New Line.Lateral2.179 Bus1=2_178 Bus2=2_179 units=m Linecode=Line_MV_95 Length=1
New Line.Lateral2.180 Bus1=2_179 Bus2=2_180 units=m Linecode=Line_MV_95 Length=1 
New Line.Lateral2.181 Bus1=2_180 Bus2=2_181 units=m Linecode=Line_MV_95 Length=1 
New Line.Lateral2.182 Bus1=2_181 Bus2=2_182 units=m Linecode=Line_MV_95 Length=1 
New Line.Lateral2.183 Bus1=2_182 Bus2=2_183 units=m Linecode=Line_MV_95 Length=1 
New Line.Lateral2.184 Bus1=2_183 Bus2=2_184 units=m Linecode=Line_MV_95 Length=1 
New Line.Lateral2.185 Bus1=2_184 Bus2=2_185 units=m Linecode=Line_MV_95 Length=1 
New Line.Lateral2.186 Bus1=2_185 Bus2=2_186 units=m Linecode=Line_MV_95 Length=1 
New Line.Lateral2.187 Bus1=2_186 Bus2=2_187 units=m Linecode=Line_MV_95 Length=1 
New Line.Lateral2.188 Bus1=2_187 Bus2=2_188 units=m Linecode=Line_MV_95 Length=1 
New Line.Lateral2.189 Bus1=2_188 Bus2=2_189 units=m Linecode=Line_MV_95 Length=1 
New Line.Lateral2.190 Bus1=2_189 Bus2=2_190 units=m Linecode=Line_MV_95 Length=1 
New Line.Lateral2.191 Bus1=2_190 Bus2=2_191 units=m Linecode=Line_MV_95 Length=1 
New Line.Lateral2.192 Bus1=2_191 Bus2=2_192 units=m Linecode=Line_MV_95 Length=1 
New Line.Lateral2.193 Bus1=2_192 Bus2=2_193 units=m Linecode=Line_MV_95 Length=1 
New Line.Lateral2.194 Bus1=2_193 Bus2=2_194 units=m Linecode=Line_MV_95 Length=1 
New Line.Lateral2.195 Bus1=2_194 Bus2=2_195 units=m Linecode=Line_MV_95 Length=1 
New Line.Lateral2.196 Bus1=2_195 Bus2=2_196 units=m Linecode=Line_MV_95 Length=1 
New Line.Lateral2.197 Bus1=2_196 Bus2=2_197 units=m Linecode=Line_MV_95 Length=1 
New Line.Lateral2.198 Bus1=2_197 Bus2=2_198 units=m Linecode=Line_MV_95 Length=1 
New Line.Lateral2.199 Bus1=2_198 Bus2=2_199 units=m Linecode=Line_MV_95 Length=1 
New Line.Lateral2.200 Bus1=2_199 Bus2=2_200 units=m Linecode=Line_MV_95 Length=1 
New Line.Lateral2.201 Bus1=2_200 Bus2=2_201 units=m Linecode=Line_MV_95 Length=1 
New Line.Lateral2.202 Bus1=2_201 Bus2=2_202 units=m Linecode=Line_MV_95 Length=1 
New Line.Lateral2.203 Bus1=2_202 Bus2=2_203 units=m Linecode=Line_MV_95 Length=1 
New Line.Lateral2.204 Bus1=2_203 Bus2=2_204 units=m Linecode=Line_MV_95 Length=1 
New Line.Lateral2.205 Bus1=2_204 Bus2=2_205 units=m Linecode=Line_MV_95 Length=1 
New Line.Lateral2.206 Bus1=2_205 Bus2=2_206 units=m Linecode=Line_MV_95 Length=1 
New Line.Lateral2.207 Bus1=2_206 Bus2=2_207 units=m Linecode=Line_MV_95 Length=1 
New Line.Lateral2.208 Bus1=2_207 Bus2=2_208 units=m Linecode=Line_MV_95 Length=1 
New Line.Lateral2.209 Bus1=2_208 Bus2=2_209 units=m Linecode=Line_MV_95 Length=1 
New Line.Lateral2.210 Bus1=2_209 Bus2=2_210 units=m Linecode=Line_MV_95 Length=1 
New Line.Lateral2.211 Bus1=2_210 Bus2=2_211 units=m Linecode=Line_MV_95 Length=1 
New Line.Lateral2.212 Bus1=2_211 Bus2=2_212 units=m Linecode=Line_MV_95 Length=1 
New Line.Lateral2.213 Bus1=2_212 Bus2=2_213 units=m Linecode=Line_MV_95 Length=1 
New Line.Lateral2.214 Bus1=2_213 Bus2=2_214 units=m Linecode=Line_MV_95 Length=1 
New Line.Lateral2.215 Bus1=2_214 Bus2=2_215 units=m Linecode=Line_MV_95 Length=1 
New Line.Lateral2.216 Bus1=2_215 Bus2=2_216 units=m Linecode=Line_MV_95 Length=1 
New Line.Lateral2.217 Bus1=2_216 Bus2=2_217 units=m Linecode=Line_MV_95 Length=1 
New Line.Lateral2.218 Bus1=2_217 Bus2=2_218 units=m Linecode=Line_MV_95 Length=1 
New Line.Lateral2.219 Bus1=2_218 Bus2=2_219 units=m Linecode=Line_MV_95 Length=1 
New Line.Lateral2.220 Bus1=2_219 Bus2=2_220 units=m Linecode=Line_MV_95 Length=1 
New Line.Lateral2.221 Bus1=2_220 Bus2=2_221 units=m Linecode=Line_MV_95 Length=1 
New Line.Lateral2.222 Bus1=2_221 Bus2=2_222 units=m Linecode=Line_MV_95 Length=1 
New Line.Lateral2.223 Bus1=2_222 Bus2=2_223 units=m Linecode=Line_MV_95 Length=1 
New Line.Lateral2.224 Bus1=2_223 Bus2=2_224 units=m Linecode=Line_MV_95 Length=1 
New Line.Lateral2.225 Bus1=2_224 Bus2=2_225 units=m Linecode=Line_MV_95 Length=1
New Line.Lateral2.226 Bus1=2_225 Bus2=2_226 units=m Linecode=Line_MV_95 Length=1 
New Line.Lateral2.227 Bus1=2_226 Bus2=2_227 units=m Linecode=Line_MV_95 Length=1 
New Line.Lateral2.228 Bus1=2_227 Bus2=2_228 units=m Linecode=Line_MV_95 Length=1 
New Line.Lateral2.229 Bus1=2_228 Bus2=2_229 units=m Linecode=Line_MV_95 Length=1 
New Line.Lateral2.230 Bus1=2_229 Bus2=2_230 units=m Linecode=Line_MV_95 Length=1 
New Line.Lateral2.231 Bus1=2_230 Bus2=2_231 units=m Linecode=Line_MV_95 Length=1 
New Line.Lateral2.232 Bus1=2_231 Bus2=2_232 units=m Linecode=Line_MV_95 Length=1 
New Line.Lateral2.233 Bus1=2_232 Bus2=2_233 units=m Linecode=Line_MV_95 Length=1 
New Line.Lateral2_end_1 Bus1=2_233 Bus2=2_234 units=m Linecode=Line_MV_95 Length=1


New Line.Feeder2.235 Bus1=2_48 Bus2=2_235 units=m Linecode=Line_MV_185 Length=1 
New Line.Feeder2.236 Bus1=2_235 Bus2=2_236 units=m Linecode=Line_MV_185 Length=1 
New Line.Feeder2.237 Bus1=2_235 Bus2=2_237 units=m Linecode=Line_MV_185 Length=1 
New Line.Feeder2.238 Bus1=2_237 Bus2=2_238 units=m Linecode=Line_MV_185 Length=1 
New Line.Feeder2.239 Bus1=2_238 Bus2=2_239 units=m Linecode=Line_MV_185 Length=1 
New Line.Feeder2.240 Bus1=2_239 Bus2=2_240 units=m Linecode=Line_MV_185 Length=1 
New Line.Feeder2.241 Bus1=2_240 Bus2=2_241 units=m Linecode=Line_MV_185 Length=1 
New Line.Feeder2.242 Bus1=2_241 Bus2=2_242 units=m Linecode=Line_MV_185 Length=1 
New Line.Feeder2.243 Bus1=2_242 Bus2=2_243 units=m Linecode=Line_MV_185 Length=1
New Line.Feeder2.244 Bus1=2_243 Bus2=2_244 units=m Linecode=Line_MV_185 Length=1 
New Line.Feeder2.245 Bus1=2_244 Bus2=2_245 units=m Linecode=Line_MV_185 Length=1 
New Line.Feeder2.246 Bus1=2_245 Bus2=2_246 units=m Linecode=Line_MV_185 Length=1
New Line.Feeder2.247 Bus1=2_246 Bus2=2_247 units=m Linecode=Line_MV_185 Length=1 
New Line.Feeder2.248 Bus1=2_247 Bus2=2_248 units=m Linecode=Line_MV_185 Length=1 
New Line.Feeder2.249 Bus1=2_248 Bus2=2_249 units=m Linecode=Line_MV_185 Length=1 
New Line.Feeder2.250 Bus1=2_249 Bus2=2_250 units=m Linecode=Line_MV_185 Length=1 
New Line.Feeder2.251 Bus1=2_250 Bus2=2_251 units=m Linecode=Line_MV_185 Length=1 
New Line.Feeder2.252 Bus1=2_251 Bus2=2_252 units=m Linecode=Line_MV_185 Length=1 
New Line.Feeder2.253 Bus1=2_252 Bus2=2_253 units=m Linecode=Line_MV_185 Length=1 
New Line.Feeder2.254 Bus1=2_253 Bus2=2_254 units=m Linecode=Line_MV_185 Length=1 
New Line.Feeder2.255 Bus1=2_254 Bus2=2_255 units=m Linecode=Line_MV_185 Length=1 
New Line.Feeder2.256 Bus1=2_255 Bus2=2_256 units=m Linecode=Line_MV_185 Length=1 
New Line.Feeder2.257 Bus1=2_256 Bus2=2_257 units=m Linecode=Line_MV_185 Length=1 
New Line.Feeder2.258 Bus1=2_257 Bus2=2_258 units=m Linecode=Line_MV_185 Length=1 
New Line.Feeder2.259 Bus1=2_258 Bus2=2_259 units=m Linecode=Line_MV_185 Length=1 
New Line.Feeder2.260 Bus1=2_259 Bus2=2_260 units=m Linecode=Line_MV_185 Length=1 
New Line.Feeder2.261 Bus1=2_260 Bus2=2_261 units=m Linecode=Line_MV_185 Length=1 
New Line.Feeder2.262 Bus1=2_261 Bus2=2_262 units=m Linecode=Line_MV_185 Length=1 
New Line.Feeder2.263 Bus1=2_262 Bus2=2_263 units=m Linecode=Line_MV_185 Length=1 
New Line.Feeder2.264 Bus1=2_263 Bus2=2_264 units=m Linecode=Line_MV_185 Length=1 
New Line.Feeder2.265 Bus1=2_264 Bus2=2_265 units=m Linecode=Line_MV_185 Length=1 
New Line.Feeder2.266 Bus1=2_265 Bus2=2_266 units=m Linecode=Line_MV_185 Length=1 
New Line.Feeder2.267 Bus1=2_266 Bus2=2_267 units=m Linecode=Line_MV_185 Length=1 
New Line.Feeder2.268 Bus1=2_267 Bus2=2_268 units=m Linecode=Line_MV_185 Length=1 
New Line.Feeder2.269 Bus1=2_268 Bus2=2_269 units=m Linecode=Line_MV_185 Length=1 
New Line.Feeder2.270 Bus1=2_269 Bus2=2_270 units=m Linecode=Line_MV_185 Length=1
New Line.Feeder2.271 Bus1=2_270 Bus2=2_271 units=m Linecode=Line_MV_185 Length=1 
New Line.Feeder2.272 Bus1=2_271 Bus2=2_272 units=m Linecode=Line_MV_185 Length=1 
New Line.Feeder2.273 Bus1=2_272 Bus2=2_273 units=m Linecode=Line_MV_185 Length=1 
New Line.Feeder2.274 Bus1=2_273 Bus2=2_274 units=m Linecode=Line_MV_185 Length=1 
New Line.Feeder2.275 Bus1=2_274 Bus2=2_275 units=m Linecode=Line_MV_185 Length=1 
New Line.Feeder2.276 Bus1=2_275 Bus2=2_276 units=m Linecode=Line_MV_185 Length=1 
New Line.Feeder2.277 Bus1=2_276 Bus2=2_277 units=m Linecode=Line_MV_185 Length=1
New Line.Feeder2.278 Bus1=2_277 Bus2=2_278 units=m Linecode=Line_MV_185 Length=1 
New Line.Feeder2.279 Bus1=2_278 Bus2=2_279 units=m Linecode=Line_MV_185 Length=1 
New Line.Feeder2.280 Bus1=2_279 Bus2=2_280 units=m Linecode=Line_MV_185 Length=1 
New Line.Feeder2.281 Bus1=2_280 Bus2=2_281 units=m Linecode=Line_MV_185 Length=1 
New Line.Feeder2.282 Bus1=2_281 Bus2=2_282 units=m Linecode=Line_MV_185 Length=1 
New Line.Feeder2.283 Bus1=2_282 Bus2=2_283 units=m Linecode=Line_MV_185 Length=1 
New Line.Feeder2.284 Bus1=2_283 Bus2=2_284 units=m Linecode=Line_MV_185 Length=1 
New Line.Feeder2.285 Bus1=2_284 Bus2=2_285 units=m Linecode=Line_MV_185 Length=1 
New Line.Feeder2.286 Bus1=2_285 Bus2=2_286 units=m Linecode=Line_MV_185 Length=1 
New Line.Feeder2.287 Bus1=2_286 Bus2=2_287 units=m Linecode=Line_MV_185 Length=1 
New Line.Feeder2.288 Bus1=2_287 Bus2=2_288 units=m Linecode=Line_MV_185 Length=1 
New Line.Feeder2.289 Bus1=2_288 Bus2=2_289 units=m Linecode=Line_MV_185 Length=1 
New Line.Feeder2.290 Bus1=2_289 Bus2=2_290 units=m Linecode=Line_MV_185 Length=1 
New Line.Feeder2.291 Bus1=2_290 Bus2=2_291 units=m Linecode=Line_MV_185 Length=1 
New Line.Feeder2.292 Bus1=2_291 Bus2=2_292 units=m Linecode=Line_MV_185 Length=1 
New Line.Feeder2.293 Bus1=2_292 Bus2=2_293 units=m Linecode=Line_MV_185 Length=1 
New Line.Feeder2.294 Bus1=2_293 Bus2=2_294 units=m Linecode=Line_MV_185 Length=1 
New Line.Feeder2.295 Bus1=2_294 Bus2=2_295 units=m Linecode=Line_MV_185 Length=1 
New Line.Feeder2.296 Bus1=2_295 Bus2=2_296 units=m Linecode=Line_MV_185 Length=1 
New Line.Feeder2.297 Bus1=2_296 Bus2=2_297 units=m Linecode=Line_MV_185 Length=1 
New Line.Feeder2.298 Bus1=2_297 Bus2=2_298 units=m Linecode=Line_MV_185 Length=1 
New Line.Feeder2.299 Bus1=2_298 Bus2=2_299 units=m Linecode=Line_MV_185 Length=1 
New Line.Feeder2.300 Bus1=2_299 Bus2=2_300 units=m Linecode=Line_MV_185 Length=1 
New Line.Feeder2.301 Bus1=2_300 Bus2=2_301 units=m Linecode=Line_MV_185 Length=1 
New Line.Feeder2.302 Bus1=2_301 Bus2=2_302 units=m Linecode=Line_MV_185 Length=1 
New Line.Feeder2.303 Bus1=2_302 Bus2=2_303 units=m Linecode=Line_MV_185 Length=1 
New Line.Feeder2.304 Bus1=2_303 Bus2=2_304 units=m Linecode=Line_MV_185 Length=1 
New Line.Feeder2.305 Bus1=2_304 Bus2=2_305 units=m Linecode=Line_MV_185 Length=1 
New Line.Feeder2.306 Bus1=2_305 Bus2=2_306 units=m Linecode=Line_MV_185 Length=1 
New Line.Feeder2.307 Bus1=2_306 Bus2=2_307 units=m Linecode=Line_MV_185 Length=1 
New Line.Feeder2.308 Bus1=2_307 Bus2=2_308 units=m Linecode=Line_MV_185 Length=1 
New Line.Feeder2.309 Bus1=2_308 Bus2=2_309 units=m Linecode=Line_MV_185 Length=1 
New Line.Feeder2.310 Bus1=2_309 Bus2=2_310 units=m Linecode=Line_MV_185 Length=1 
New Line.Feeder2.311 Bus1=2_310 Bus2=2_311 units=m Linecode=Line_MV_185 Length=1 
New Line.Feeder2.312 Bus1=2_311 Bus2=2_312 units=m Linecode=Line_MV_185 Length=1 
New Line.Feeder2.313 Bus1=2_312 Bus2=2_313 units=m Linecode=Line_MV_185 Length=1 
New Line.Feeder2.314 Bus1=2_313 Bus2=2_314 units=m Linecode=Line_MV_185 Length=1 
New Line.Feeder2.315 Bus1=2_314 Bus2=2_315 units=m Linecode=Line_MV_185 Length=1
New Line.Feeder2.316 Bus1=2_315 Bus2=2_316 units=m Linecode=Line_MV_185 Length=1 
New Line.Feeder2.317 Bus1=2_316 Bus2=2_317 units=m Linecode=Line_MV_185 Length=1 
New Line.Feeder2.318 Bus1=2_317 Bus2=2_318 units=m Linecode=Line_MV_185 Length=1 
New Line.Feeder2.319 Bus1=2_318 Bus2=2_319 units=m Linecode=Line_MV_185 Length=1 
New Line.Feeder2.320 Bus1=2_319 Bus2=2_320 units=m Linecode=Line_MV_185 Length=1 
New Line.Feeder2.321 Bus1=2_320 Bus2=2_321 units=m Linecode=Line_MV_185 Length=1 
New Line.Feeder2.322 Bus1=2_321 Bus2=2_322 units=m Linecode=Line_MV_185 Length=1 
New Line.Feeder2.323 Bus1=2_322 Bus2=2_323 units=m Linecode=Line_MV_185 Length=1 
New Line.Feeder2.324 Bus1=2_323 Bus2=2_324 units=m Linecode=Line_MV_185 Length=1 
New Line.Feeder2.325 Bus1=2_324 Bus2=2_325 units=m Linecode=Line_MV_185 Length=1 
New Line.Feeder2.326 Bus1=2_325 Bus2=2_326 units=m Linecode=Line_MV_185 Length=1 
New Line.Feeder2.327 Bus1=2_326 Bus2=2_327 units=m Linecode=Line_MV_185 Length=1 
New Line.Feeder2.328 Bus1=2_327 Bus2=2_328 units=m Linecode=Line_MV_185 Length=1 
New Line.Feeder2.329 Bus1=2_328 Bus2=2_329 units=m Linecode=Line_MV_185 Length=1
 
New Line.Lateral2_start_2 Bus1=2_328 Bus2=2_330 units=m Linecode=Line_MV_95 Length=1
New Line.Lateral2.331 Bus1=2_330 Bus2=2_331 units=m Linecode=Line_MV_95 Length=1 
New Line.Lateral2.332 Bus1=2_331 Bus2=2_332 units=m Linecode=Line_MV_95 Length=1 
New Line.Lateral2.333 Bus1=2_332 Bus2=2_333 units=m Linecode=Line_MV_95 Length=1 
New Line.Lateral2.334 Bus1=2_333 Bus2=2_334 units=m Linecode=Line_MV_95 Length=1
New Line.Lateral2.335 Bus1=2_334 Bus2=2_335 units=m Linecode=Line_MV_95 Length=1 
New Line.Lateral2.336 Bus1=2_335 Bus2=2_336 units=m Linecode=Line_MV_95 Length=1 
New Line.Lateral2.337 Bus1=2_336 Bus2=2_337 units=m Linecode=Line_MV_95 Length=1 
New Line.Lateral2.338 Bus1=2_337 Bus2=2_338 units=m Linecode=Line_MV_95 Length=1 
New Line.Lateral2.339 Bus1=2_338 Bus2=2_339 units=m Linecode=Line_MV_95 Length=1 
New Line.Lateral2.340 Bus1=2_339 Bus2=2_340 units=m Linecode=Line_MV_95 Length=1 
New Line.Lateral2.341 Bus1=2_340 Bus2=2_341 units=m Linecode=Line_MV_95 Length=1 
New Line.Lateral2.342 Bus1=2_341 Bus2=2_342 units=m Linecode=Line_MV_95 Length=1 
New Line.Lateral2.343 Bus1=2_342 Bus2=2_343 units=m Linecode=Line_MV_95 Length=1 
New Line.Lateral2.344 Bus1=2_343 Bus2=2_344 units=m Linecode=Line_MV_95 Length=1 
New Line.Lateral2.345 Bus1=2_344 Bus2=2_345 units=m Linecode=Line_MV_95 Length=1 
New Line.Lateral2.346 Bus1=2_345 Bus2=2_346 units=m Linecode=Line_MV_95 Length=1 
New Line.Lateral2.347 Bus1=2_346 Bus2=2_347 units=m Linecode=Line_MV_95 Length=1 
New Line.Lateral2.348 Bus1=2_347 Bus2=2_348 units=m Linecode=Line_MV_95 Length=1 
New Line.Lateral2.349 Bus1=2_348 Bus2=2_349 units=m Linecode=Line_MV_95 Length=1
New Line.Lateral2.350 Bus1=2_349 Bus2=2_350 units=m Linecode=Line_MV_95 Length=1 
New Line.Lateral2.351 Bus1=2_350 Bus2=2_351 units=m Linecode=Line_MV_95 Length=1 
New Line.Lateral2.352 Bus1=2_351 Bus2=2_352 units=m Linecode=Line_MV_95 Length=1 
New Line.Lateral2.353 Bus1=2_352 Bus2=2_353 units=m Linecode=Line_MV_95 Length=1 
New Line.Lateral2.354 Bus1=2_353 Bus2=2_354 units=m Linecode=Line_MV_95 Length=1 
New Line.Lateral2.355 Bus1=2_354 Bus2=2_355 units=m Linecode=Line_MV_95 Length=1 
New Line.Lateral2.356 Bus1=2_355 Bus2=2_356 units=m Linecode=Line_MV_95 Length=1 
New Line.Lateral2.357 Bus1=2_356 Bus2=2_357 units=m Linecode=Line_MV_95 Length=1 
New Line.Lateral2.358 Bus1=2_357 Bus2=2_358 units=m Linecode=Line_MV_95 Length=1 
New Line.Lateral2.359 Bus1=2_358 Bus2=2_359 units=m Linecode=Line_MV_95 Length=1 
New Line.Lateral2.360 Bus1=2_359 Bus2=2_360 units=m Linecode=Line_MV_95 Length=1 
New Line.Lateral2.361 Bus1=2_360 Bus2=2_361 units=m Linecode=Line_MV_95 Length=1 
New Line.Lateral2.362 Bus1=2_361 Bus2=2_362 units=m Linecode=Line_MV_95 Length=1 
New Line.Lateral2.363 Bus1=2_362 Bus2=2_363 units=m Linecode=Line_MV_95 Length=1
New Line.Lateral2.364 Bus1=2_363 Bus2=2_364 units=m Linecode=Line_MV_95 Length=1 
New Line.Lateral2.365 Bus1=2_364 Bus2=2_365 units=m Linecode=Line_MV_95 Length=1 
New Line.Lateral2.366 Bus1=2_365 Bus2=2_366 units=m Linecode=Line_MV_95 Length=1 
New Line.Lateral2.367 Bus1=2_366 Bus2=2_367 units=m Linecode=Line_MV_95 Length=1 
New Line.Lateral2.368 Bus1=2_367 Bus2=2_368 units=m Linecode=Line_MV_95 Length=1 
New Line.Lateral2.369 Bus1=2_368 Bus2=2_369 units=m Linecode=Line_MV_95 Length=1 
New Line.Lateral2.370 Bus1=2_369 Bus2=2_370 units=m Linecode=Line_MV_95 Length=1 
New Line.Lateral2.371 Bus1=2_370 Bus2=2_371 units=m Linecode=Line_MV_95 Length=1 
New Line.Lateral2.372 Bus1=2_371 Bus2=2_372 units=m Linecode=Line_MV_95 Length=1 
New Line.Lateral2.373 Bus1=2_372 Bus2=2_373 units=m Linecode=Line_MV_95 Length=1 
New Line.Lateral2.374 Bus1=2_373 Bus2=2_374 units=m Linecode=Line_MV_95 Length=1 
New Line.Lateral2.375 Bus1=2_374 Bus2=2_375 units=m Linecode=Line_MV_95 Length=1 
New Line.Lateral2.376 Bus1=2_375 Bus2=2_376 units=m Linecode=Line_MV_95 Length=1 
New Line.Lateral2.377 Bus1=2_376 Bus2=2_377 units=m Linecode=Line_MV_95 Length=1 
New Line.Lateral2.378 Bus1=2_377 Bus2=2_378 units=m Linecode=Line_MV_95 Length=1 
New Line.Lateral2.379 Bus1=2_378 Bus2=2_379 units=m Linecode=Line_MV_95 Length=1 
New Line.Lateral2.380 Bus1=2_379 Bus2=2_380 units=m Linecode=Line_MV_95 Length=1 
New Line.Lateral2.381 Bus1=2_380 Bus2=2_381 units=m Linecode=Line_MV_95 Length=1 
New Line.Lateral2.382 Bus1=2_381 Bus2=2_382 units=m Linecode=Line_MV_95 Length=1 
New Line.Lateral2.383 Bus1=2_382 Bus2=2_383 units=m Linecode=Line_MV_95 Length=1 
New Line.Lateral2.384 Bus1=2_383 Bus2=2_384 units=m Linecode=Line_MV_95 Length=1
New Line.Lateral2.385 Bus1=2_384 Bus2=2_385 units=m Linecode=Line_MV_95 Length=1 
New Line.Lateral2.386 Bus1=2_385 Bus2=2_386 units=m Linecode=Line_MV_95 Length=1 
New Line.Lateral2.387 Bus1=2_386 Bus2=2_387 units=m Linecode=Line_MV_95 Length=1 
New Line.Lateral2.388 Bus1=2_387 Bus2=2_388 units=m Linecode=Line_MV_95 Length=1 
New Line.Lateral2.389 Bus1=2_388 Bus2=2_389 units=m Linecode=Line_MV_95 Length=1 
New Line.Lateral2.390 Bus1=2_389 Bus2=2_390 units=m Linecode=Line_MV_95 Length=1 
New Line.Lateral2.391 Bus1=2_390 Bus2=2_391 units=m Linecode=Line_MV_95 Length=1 
New Line.Lateral2.392 Bus1=2_391 Bus2=2_392 units=m Linecode=Line_MV_95 Length=1 
New Line.Lateral2.393 Bus1=2_392 Bus2=2_393 units=m Linecode=Line_MV_95 Length=1 
New Line.Lateral2.394 Bus1=2_393 Bus2=2_394 units=m Linecode=Line_MV_95 Length=1 
New Line.Lateral2.395 Bus1=2_394 Bus2=2_395 units=m Linecode=Line_MV_95 Length=1 
New Line.Lateral2.396 Bus1=2_395 Bus2=2_396 units=m Linecode=Line_MV_95 Length=1 
New Line.Lateral2.397 Bus1=2_396 Bus2=2_397 units=m Linecode=Line_MV_95 Length=1
New Line.Lateral2.398 Bus1=2_397 Bus2=2_398 units=m Linecode=Line_MV_95 Length=1 
New Line.Lateral2.399 Bus1=2_398 Bus2=2_399 units=m Linecode=Line_MV_95 Length=1 
New Line.Lateral2.400 Bus1=2_399 Bus2=2_400 units=m Linecode=Line_MV_95 Length=1 
New Line.Lateral2.401 Bus1=2_400 Bus2=2_401 units=m Linecode=Line_MV_95 Length=1 
New Line.Lateral2.402 Bus1=2_401 Bus2=2_402 units=m Linecode=Line_MV_95 Length=1 
New Line.Lateral2.403 Bus1=2_402 Bus2=2_403 units=m Linecode=Line_MV_95 Length=1 
New Line.Lateral2.404 Bus1=2_403 Bus2=2_404 units=m Linecode=Line_MV_95 Length=1 
New Line.Lateral2.405 Bus1=2_404 Bus2=2_405 units=m Linecode=Line_MV_95 Length=1 
New Line.Lateral2.406 Bus1=2_405 Bus2=2_406 units=m Linecode=Line_MV_95 Length=1 
New Line.Lateral2.407 Bus1=2_406 Bus2=2_407 units=m Linecode=Line_MV_95 Length=1 
New Line.Lateral2.408 Bus1=2_407 Bus2=2_408 units=m Linecode=Line_MV_95 Length=1 
New Line.Lateral2.409 Bus1=2_408 Bus2=2_409 units=m Linecode=Line_MV_95 Length=1 
New Line.Lateral2.410 Bus1=2_409 Bus2=2_410 units=m Linecode=Line_MV_95 Length=1 
New Line.Lateral2.411 Bus1=2_410 Bus2=2_411 units=m Linecode=Line_MV_95 Length=1 
New Line.Lateral2.412 Bus1=2_411 Bus2=2_412 units=m Linecode=Line_MV_95 Length=1 
New Line.Lateral2.413 Bus1=2_412 Bus2=2_413 units=m Linecode=Line_MV_95 Length=1 
New Line.Lateral2.414 Bus1=2_413 Bus2=2_414 units=m Linecode=Line_MV_95 Length=1 
New Line.Lateral2.415 Bus1=2_414 Bus2=2_415 units=m Linecode=Line_MV_95 Length=1 
New Line.Lateral2.416 Bus1=2_415 Bus2=2_416 units=m Linecode=Line_MV_95 Length=1 
New Line.Lateral2.417 Bus1=2_416 Bus2=2_417 units=m Linecode=Line_MV_95 Length=1
New Line.Lateral2.418 Bus1=2_417 Bus2=2_418 units=m Linecode=Line_MV_95 Length=1 
New Line.Lateral2.419 Bus1=2_418 Bus2=2_419 units=m Linecode=Line_MV_95 Length=1 
New Line.Lateral2.420 Bus1=2_419 Bus2=2_420 units=m Linecode=Line_MV_95 Length=1 
New Line.Lateral2.421 Bus1=2_420 Bus2=2_421 units=m Linecode=Line_MV_95 Length=1 
New Line.Lateral2.422 Bus1=2_421 Bus2=2_422 units=m Linecode=Line_MV_95 Length=1 
New Line.Lateral2.423 Bus1=2_422 Bus2=2_423 units=m Linecode=Line_MV_95 Length=1 
New Line.Lateral2.424 Bus1=2_423 Bus2=2_424 units=m Linecode=Line_MV_95 Length=1
New Line.Lateral2.425 Bus1=2_424 Bus2=2_425 units=m Linecode=Line_MV_95 Length=1 
New Line.Lateral2.426 Bus1=2_425 Bus2=2_426 units=m Linecode=Line_MV_95 Length=1 
New Line.Lateral2.427 Bus1=2_426 Bus2=2_427 units=m Linecode=Line_MV_95 Length=1 
New Line.Lateral2.428 Bus1=2_427 Bus2=2_428 units=m Linecode=Line_MV_95 Length=1 
New Line.Lateral2.429 Bus1=2_428 Bus2=2_439 units=m Linecode=Line_MV_95 Length=1 
New Line.Lateral2.430 Bus1=2_429 Bus2=2_430 units=m Linecode=Line_MV_95 Length=1 
New Line.Lateral2.431 Bus1=2_430 Bus2=2_431 units=m Linecode=Line_MV_95 Length=1 
New Line.Lateral2.432 Bus1=2_431 Bus2=2_432 units=m Linecode=Line_MV_95 Length=1 
New Line.Lateral2.433 Bus1=2_432 Bus2=2_433 units=m Linecode=Line_MV_95 Length=1 
New Line.Lateral2.434 Bus1=2_433 Bus2=2_434 units=m Linecode=Line_MV_95 Length=1 
New Line.Lateral2.435 Bus1=2_434 Bus2=2_435 units=m Linecode=Line_MV_95 Length=1 
New Line.Lateral2.436 Bus1=2_435 Bus2=2_436 units=m Linecode=Line_MV_95 Length=1 
New Line.Lateral2.437 Bus1=2_436 Bus2=2_437 units=m Linecode=Line_MV_95 Length=1 
New Line.Lateral2.438 Bus1=2_437 Bus2=2_438 units=m Linecode=Line_MV_95 Length=1 
New Line.Lateral2.439 Bus1=2_438 Bus2=2_439 units=m Linecode=Line_MV_95 Length=1 
New Line.Lateral2.440 Bus1=2_439 Bus2=2_440 units=m Linecode=Line_MV_95 Length=1 
New Line.Lateral2.441 Bus1=2_440 Bus2=2_441 units=m Linecode=Line_MV_95 Length=1 
New Line.Lateral2.442 Bus1=2_441 Bus2=2_442 units=m Linecode=Line_MV_95 Length=1 
New Line.Lateral2.443 Bus1=2_442 Bus2=2_443 units=m Linecode=Line_MV_95 Length=1 
New Line.Lateral2.444 Bus1=2_443 Bus2=2_444 units=m Linecode=Line_MV_95 Length=1 
New Line.Lateral2.445 Bus1=2_444 Bus2=2_445 units=m Linecode=Line_MV_95 Length=1 
New Line.Lateral2.446 Bus1=2_445 Bus2=2_446 units=m Linecode=Line_MV_95 Length=1 
New Line.Lateral2.447 Bus1=2_446 Bus2=2_447 units=m Linecode=Line_MV_95 Length=1 
New Line.Lateral2.448 Bus1=2_447 Bus2=2_448 units=m Linecode=Line_MV_95 Length=1 
New Line.Lateral2.449 Bus1=2_448 Bus2=2_449 units=m Linecode=Line_MV_95 Length=1 
New Line.Lateral2.450 Bus1=2_449 Bus2=2_450 units=m Linecode=Line_MV_95 Length=1 
New Line.Lateral2.451 Bus1=2_450 Bus2=2_451 units=m Linecode=Line_MV_95 Length=1 
New Line.Lateral2.452 Bus1=2_451 Bus2=2_452 units=m Linecode=Line_MV_95 Length=1 
New Line.Lateral2.453 Bus1=2_452 Bus2=2_453 units=m Linecode=Line_MV_95 Length=1 
New Line.Lateral2.454 Bus1=2_453 Bus2=2_454 units=m Linecode=Line_MV_95 Length=1
New Line.Lateral2.455 Bus1=2_454 Bus2=2_455 units=m Linecode=Line_MV_95 Length=1 
New Line.Lateral2.456 Bus1=2_455 Bus2=2_456 units=m Linecode=Line_MV_95 Length=1 
New Line.Lateral2.457 Bus1=2_456 Bus2=2_457 units=m Linecode=Line_MV_95 Length=1
New Line.Lateral2.458 Bus1=2_457 Bus2=2_458 units=m Linecode=Line_MV_95 Length=1 
New Line.Lateral2.459 Bus1=2_458 Bus2=2_459 units=m Linecode=Line_MV_95 Length=1 
New Line.Lateral2.460 Bus1=2_459 Bus2=2_460 units=m Linecode=Line_MV_95 Length=1 
New Line.Lateral2.461 Bus1=2_460 Bus2=2_461 units=m Linecode=Line_MV_95 Length=1 
New Line.Lateral2.462 Bus1=2_461 Bus2=2_462 units=m Linecode=Line_MV_95 Length=1 
New Line.Lateral2.463 Bus1=2_462 Bus2=2_463 units=m Linecode=Line_MV_95 Length=1 
New Line.Lateral2.464 Bus1=2_463 Bus2=2_464 units=m Linecode=Line_MV_95 Length=1 
New Line.Lateral2.465 Bus1=2_464 Bus2=2_465 units=m Linecode=Line_MV_95 Length=1 
New Line.Lateral2.466 Bus1=2_465 Bus2=2_466 units=m Linecode=Line_MV_95 Length=1 
New Line.Lateral2.467 Bus1=2_466 Bus2=2_467 units=m Linecode=Line_MV_95 Length=1 
New Line.Lateral2.468 Bus1=2_467 Bus2=2_468 units=m Linecode=Line_MV_95 Length=1
New Line.Lateral2.469 Bus1=2_468 Bus2=2_469 units=m Linecode=Line_MV_95 Length=1 
New Line.Lateral2.470 Bus1=2_469 Bus2=2_470 units=m Linecode=Line_MV_95 Length=1 
New Line.Lateral2.471 Bus1=2_470 Bus2=2_471 units=m Linecode=Line_MV_95 Length=1 
New Line.Lateral2.472 Bus1=2_471 Bus2=2_472 units=m Linecode=Line_MV_95 Length=1 
New Line.Lateral2.473 Bus1=2_472 Bus2=2_473 units=m Linecode=Line_MV_95 Length=1 
New Line.Lateral2.474 Bus1=2_473 Bus2=2_474 units=m Linecode=Line_MV_95 Length=1 
New Line.Lateral2.475 Bus1=2_474 Bus2=2_475 units=m Linecode=Line_MV_95 Length=1 
New Line.Lateral2.476 Bus1=2_475 Bus2=2_476 units=m Linecode=Line_MV_95 Length=1 
New Line.Lateral2.477 Bus1=2_476 Bus2=2_477 units=m Linecode=Line_MV_95 Length=1
New Line.Lateral2.478 Bus1=2_477 Bus2=2_478 units=m Linecode=Line_MV_95 Length=1 
New Line.Lateral2.479 Bus1=2_478 Bus2=2_479 units=m Linecode=Line_MV_95 Length=1 
New Line.Lateral2.480 Bus1=2_479 Bus2=2_480 units=m Linecode=Line_MV_95 Length=1 
New Line.Lateral2.481 Bus1=2_480 Bus2=2_481 units=m Linecode=Line_MV_95 Length=1 
New Line.Lateral2.482 Bus1=2_481 Bus2=2_482 units=m Linecode=Line_MV_95 Length=1 
New Line.Lateral2.483 Bus1=2_482 Bus2=2_483 units=m Linecode=Line_MV_95 Length=1 
New Line.Lateral2.484 Bus1=2_483 Bus2=2_484 units=m Linecode=Line_MV_95 Length=1 
New Line.Lateral2.485 Bus1=2_484 Bus2=2_485 units=m Linecode=Line_MV_95 Length=1 
New Line.Lateral2.486 Bus1=2_485 Bus2=2_486 units=m Linecode=Line_MV_95 Length=1 
New Line.Lateral2.487 Bus1=2_486 Bus2=2_487 units=m Linecode=Line_MV_95 Length=1 
New Line.Lateral2.488 Bus1=2_487 Bus2=2_488 units=m Linecode=Line_MV_95 Length=1 
New Line.Lateral2.489 Bus1=2_488 Bus2=2_489 units=m Linecode=Line_MV_95 Length=1 
New Line.Lateral2.490 Bus1=2_489 Bus2=2_490 units=m Linecode=Line_MV_95 Length=1 
New Line.Lateral2.491 Bus1=2_490 Bus2=2_491 units=m Linecode=Line_MV_95 Length=1 
New Line.Lateral2.492 Bus1=2_491 Bus2=2_492 units=m Linecode=Line_MV_95 Length=1 
New Line.Lateral2.493 Bus1=2_492 Bus2=2_493 units=m Linecode=Line_MV_95 Length=1 
New Line.Lateral2.494 Bus1=2_493 Bus2=2_494 units=m Linecode=Line_MV_95 Length=1 
New Line.Lateral2.495 Bus1=2_494 Bus2=2_495 units=m Linecode=Line_MV_95 Length=1 
New Line.Lateral2.496 Bus1=2_495 Bus2=2_496 units=m Linecode=Line_MV_95 Length=1 
New Line.Lateral2.497 Bus1=2_496 Bus2=2_497 units=m Linecode=Line_MV_95 Length=1
New Line.Lateral2.498 Bus1=2_497 Bus2=2_498 units=m Linecode=Line_MV_95 Length=1 
New Line.Lateral2.499 Bus1=2_498 Bus2=2_499 units=m Linecode=Line_MV_95 Length=1 
New Line.Lateral2.500 Bus1=2_499 Bus2=2_500 units=m Linecode=Line_MV_95 Length=1 
New Line.Lateral2.501 Bus1=2_500 Bus2=2_501 units=m Linecode=Line_MV_95 Length=1 
New Line.Lateral2.502 Bus1=2_501 Bus2=2_502 units=m Linecode=Line_MV_95 Length=1 
New Line.Lateral2.503 Bus1=2_502 Bus2=2_503 units=m Linecode=Line_MV_95 Length=1 
New Line.Lateral2.504 Bus1=2_503 Bus2=2_504 units=m Linecode=Line_MV_95 Length=1 
New Line.Lateral2.505 Bus1=2_504 Bus2=2_505 units=m Linecode=Line_MV_95 Length=1 
New Line.Lateral2.506 Bus1=2_505 Bus2=2_506 units=m Linecode=Line_MV_95 Length=1 
New Line.Lateral2.507 Bus1=2_506 Bus2=2_507 units=m Linecode=Line_MV_95 Length=1 
New Line.Lateral2.508 Bus1=2_507 Bus2=2_508 units=m Linecode=Line_MV_95 Length=1 
New Line.Lateral2.509 Bus1=2_508 Bus2=2_509 units=m Linecode=Line_MV_95 Length=1 
New Line.Lateral2.510 Bus1=2_509 Bus2=2_510 units=m Linecode=Line_MV_95 Length=1 
New Line.Lateral2.511 Bus1=2_510 Bus2=2_511 units=m Linecode=Line_MV_95 Length=1 
New Line.Lateral2.512 Bus1=2_511 Bus2=2_512 units=m Linecode=Line_MV_95 Length=1
New Line.Lateral2.513 Bus1=2_512 Bus2=2_513 units=m Linecode=Line_MV_95 Length=1 
New Line.Lateral2.514 Bus1=2_513 Bus2=2_514 units=m Linecode=Line_MV_95 Length=1 
New Line.Lateral2_end_2 Bus1=2_514 Bus2=2_515 units=m Linecode=Line_MV_95 Length=1



New Line.Feeder2.516 Bus1=2_329 Bus2=2_516 units=m Linecode=Line_MV_185 Length=1 
New Line.Feeder2.517 Bus1=2_516 Bus2=2_517 units=m Linecode=Line_MV_185 Length=1 
New Line.Feeder2.518 Bus1=2_517 Bus2=2_518 units=m Linecode=Line_MV_185 Length=1 
New Line.Feeder2.519 Bus1=2_518 Bus2=2_519 units=m Linecode=Line_MV_185 Length=1  
New Line.Feeder2.520 Bus1=2_519 Bus2=2_520 units=m Linecode=Line_MV_185 Length=1
New Line.Feeder2.521 Bus1=2_520 Bus2=2_521 units=m Linecode=Line_MV_185 Length=1 
New Line.Feeder2.522 Bus1=2_521 Bus2=2_522 units=m Linecode=Line_MV_185 Length=1 
New Line.Feeder2.523 Bus1=2_522 Bus2=2_523 units=m Linecode=Line_MV_185 Length=1 
New Line.Feeder2.524 Bus1=2_523 Bus2=2_524 units=m Linecode=Line_MV_185 Length=1 
New Line.Feeder2.525 Bus1=2_524 Bus2=2_525 units=m Linecode=Line_MV_185 Length=1 
New Line.Feeder2.526 Bus1=2_525 Bus2=2_526 units=m Linecode=Line_MV_185 Length=1 
New Line.Feeder2.527 Bus1=2_526 Bus2=2_527 units=m Linecode=Line_MV_185 Length=1 
New Line.Feeder2.528 Bus1=2_527 Bus2=2_528 units=m Linecode=Line_MV_185 Length=1 
New Line.Feeder2.529 Bus1=2_528 Bus2=2_529 units=m Linecode=Line_MV_185 Length=1 
New Line.Feeder2.530 Bus1=2_529 Bus2=2_530 units=m Linecode=Line_MV_185 Length=1 
New Line.Feeder2.531 Bus1=2_530 Bus2=2_531 units=m Linecode=Line_MV_185 Length=1
New Line.Feeder2.532 Bus1=2_531 Bus2=2_532 units=m Linecode=Line_MV_185 Length=1 
New Line.Feeder2.533 Bus1=2_532 Bus2=2_533 units=m Linecode=Line_MV_185 Length=1 
New Line.Feeder2.534 Bus1=2_533 Bus2=2_534 units=m Linecode=Line_MV_185 Length=1 
New Line.Feeder2.535 Bus1=2_534 Bus2=2_535 units=m Linecode=Line_MV_185 Length=1 
New Line.Feeder2.536 Bus1=2_535 Bus2=2_536 units=m Linecode=Line_MV_185 Length=1 
New Line.Feeder2.537 Bus1=2_536 Bus2=2_537 units=m Linecode=Line_MV_185 Length=1 
New Line.Feeder2.538 Bus1=2_537 Bus2=2_538 units=m Linecode=Line_MV_185 Length=1 
New Line.Feeder2.539 Bus1=2_538 Bus2=2_539 units=m Linecode=Line_MV_185 Length=1 
New Line.Feeder2.540 Bus1=2_539 Bus2=2_540 units=m Linecode=Line_MV_185 Length=1 
New Line.Feeder2.541 Bus1=2_540 Bus2=2_541 units=m Linecode=Line_MV_185 Length=1 
New Line.Feeder2.542 Bus1=2_541 Bus2=2_542 units=m Linecode=Line_MV_185 Length=1
New Line.Feeder2.543 Bus1=2_542 Bus2=2_543 units=m Linecode=Line_MV_185 Length=1 
New Line.Feeder2.544 Bus1=2_543 Bus2=2_544 units=m Linecode=Line_MV_185 Length=1 
New Line.Feeder2.545 Bus1=2_544 Bus2=2_545 units=m Linecode=Line_MV_185 Length=1 
New Line.Feeder2.546 Bus1=2_545 Bus2=2_546 units=m Linecode=Line_MV_185 Length=1 
New Line.Feeder2.547 Bus1=2_546 Bus2=2_547 units=m Linecode=Line_MV_185 Length=1 
New Line.Feeder2.548 Bus1=2_547 Bus2=2_548 units=m Linecode=Line_MV_185 Length=1 
New Line.Feeder2.549 Bus1=2_548 Bus2=2_549 units=m Linecode=Line_MV_185 Length=1 
New Line.Feeder2.550 Bus1=2_549 Bus2=2_550 units=m Linecode=Line_MV_185 Length=1
New Line.Feeder2.551 Bus1=2_550 Bus2=2_551 units=m Linecode=Line_MV_185 Length=1
New Line.Feeder2.552 Bus1=2_551 Bus2=2_552 units=m Linecode=Line_MV_185 Length=1 
New Line.Feeder2.553 Bus1=2_552 Bus2=2_553 units=m Linecode=Line_MV_185 Length=1 
New Line.Feeder2.554 Bus1=2_553 Bus2=2_554 units=m Linecode=Line_MV_185 Length=1 
New Line.Feeder2.555 Bus1=2_554 Bus2=2_555 units=m Linecode=Line_MV_185 Length=1 
New Line.Feeder2.556 Bus1=2_555 Bus2=2_556 units=m Linecode=Line_MV_185 Length=1 
New Line.Feeder2.557 Bus1=2_556 Bus2=2_557 units=m Linecode=Line_MV_185 Length=1 
New Line.Feeder2.558 Bus1=2_557 Bus2=2_558 units=m Linecode=Line_MV_185 Length=1 
New Line.Feeder2.559 Bus1=2_558 Bus2=2_559 units=m Linecode=Line_MV_185 Length=1 
New Line.Feeder2.560 Bus1=2_559 Bus2=2_560 units=m Linecode=Line_MV_185 Length=1
New Line.Feeder2.561 Bus1=2_560 Bus2=2_561 units=m Linecode=Line_MV_185 Length=1 
New Line.Feeder2.562 Bus1=2_561 Bus2=2_562 units=m Linecode=Line_MV_185 Length=1 
New Line.Feeder2.563 Bus1=2_562 Bus2=2_563 units=m Linecode=Line_MV_185 Length=1 
New Line.Feeder2.564 Bus1=2_563 Bus2=2_564 units=m Linecode=Line_MV_185 Length=1 
New Line.Feeder2.565 Bus1=2_564 Bus2=2_565 units=m Linecode=Line_MV_185 Length=1 
New Line.Feeder2.566 Bus1=2_565 Bus2=2_566 units=m Linecode=Line_MV_185 Length=1 
New Line.Feeder2.567 Bus1=2_566 Bus2=2_567 units=m Linecode=Line_MV_185 Length=1 
New Line.Feeder2.568 Bus1=2_567 Bus2=2_568 units=m Linecode=Line_MV_185 Length=1 
New Line.Feeder2.569 Bus1=2_568 Bus2=2_569 units=m Linecode=Line_MV_185 Length=1  
New Line.Feeder2.570 Bus1=2_569 Bus2=2_570 units=m Linecode=Line_MV_185 Length=1
New Line.Feeder2.571 Bus1=2_570 Bus2=2_571 units=m Linecode=Line_MV_185 Length=1 
New Line.Feeder2.572 Bus1=2_571 Bus2=2_572 units=m Linecode=Line_MV_185 Length=1 
New Line.Feeder2.573 Bus1=2_572 Bus2=2_573 units=m Linecode=Line_MV_185 Length=1 
New Line.Feeder2.574 Bus1=2_573 Bus2=2_574 units=m Linecode=Line_MV_185 Length=1 
New Line.Feeder2.575 Bus1=2_574 Bus2=2_575 units=m Linecode=Line_MV_185 Length=1 
New Line.Feeder2.576 Bus1=2_575 Bus2=2_576 units=m Linecode=Line_MV_185 Length=1 
New Line.Feeder2.577 Bus1=2_576 Bus2=2_577 units=m Linecode=Line_MV_185 Length=1 
New Line.Feeder2.578 Bus1=2_577 Bus2=2_578 units=m Linecode=Line_MV_185 Length=1 
New Line.Feeder2.579 Bus1=2_578 Bus2=2_579 units=m Linecode=Line_MV_185 Length=1 
New Line.Feeder2.580 Bus1=2_579 Bus2=2_580 units=m Linecode=Line_MV_185 Length=1
New Line.Feeder2.581 Bus1=2_580 Bus2=2_581 units=m Linecode=Line_MV_185 Length=1
New Line.Feeder2.582 Bus1=2_581 Bus2=2_582 units=m Linecode=Line_MV_185 Length=1 
New Line.Feeder2.583 Bus1=2_582 Bus2=2_583 units=m Linecode=Line_MV_185 Length=1 
New Line.Feeder2.584 Bus1=2_583 Bus2=2_584 units=m Linecode=Line_MV_185 Length=1 
New Line.Feeder2.585 Bus1=2_584 Bus2=2_585 units=m Linecode=Line_MV_185 Length=1 
New Line.Feeder2.586 Bus1=2_585 Bus2=2_586 units=m Linecode=Line_MV_185 Length=1 
New Line.Feeder2.587 Bus1=2_586 Bus2=2_587 units=m Linecode=Line_MV_185 Length=1
New Line.Feeder2.588 Bus1=2_587 Bus2=2_588 units=m Linecode=Line_MV_185 Length=1 
New Line.Feeder2.589 Bus1=2_588 Bus2=2_589 units=m Linecode=Line_MV_185 Length=1  
New Line.Feeder2.590 Bus1=2_589 Bus2=2_590 units=m Linecode=Line_MV_185 Length=1
New Line.Feeder2.591 Bus1=2_590 Bus2=2_591 units=m Linecode=Line_MV_185 Length=1 
New Line.Feeder2.592 Bus1=2_591 Bus2=2_592 units=m Linecode=Line_MV_185 Length=1 
New Line.Feeder2.593 Bus1=2_592 Bus2=2_593 units=m Linecode=Line_MV_185 Length=1 
New Line.Feeder2.594 Bus1=2_593 Bus2=2_594 units=m Linecode=Line_MV_185 Length=1 
New Line.Feeder2.595 Bus1=2_594 Bus2=2_595 units=m Linecode=Line_MV_185 Length=1 
New Line.Feeder2.596 Bus1=2_595 Bus2=2_596 units=m Linecode=Line_MV_185 Length=1 
New Line.Feeder2.597 Bus1=2_596 Bus2=2_597 units=m Linecode=Line_MV_185 Length=1 
New Line.Feeder2.598 Bus1=2_597 Bus2=2_598 units=m Linecode=Line_MV_185 Length=1 
New Line.Feeder2.599 Bus1=2_598 Bus2=2_599 units=m Linecode=Line_MV_185 Length=1 
New Line.Feeder2.600 Bus1=2_599 Bus2=2_600 units=m Linecode=Line_MV_185 Length=1
New Line.Feeder2.601 Bus1=2_600 Bus2=2_601 units=m Linecode=Line_MV_185 Length=1
New Line.Feeder2.602 Bus1=2_601 Bus2=2_602 units=m Linecode=Line_MV_185 Length=1 
New Line.Feeder2.603 Bus1=2_602 Bus2=2_603 units=m Linecode=Line_MV_185 Length=1 
New Line.Feeder2.604 Bus1=2_603 Bus2=2_604 units=m Linecode=Line_MV_185 Length=1 
New Line.Feeder2.605 Bus1=2_604 Bus2=2_605 units=m Linecode=Line_MV_185 Length=1 
New Line.Feeder2.606 Bus1=2_605 Bus2=2_606 units=m Linecode=Line_MV_185 Length=1 
New Line.Feeder2.607 Bus1=2_606 Bus2=2_607 units=m Linecode=Line_MV_185 Length=1 
New Line.Feeder2.608 Bus1=2_607 Bus2=2_608 units=m Linecode=Line_MV_185 Length=1 
New Line.Feeder2.609 Bus1=2_608 Bus2=2_609 units=m Linecode=Line_MV_185 Length=1 
New Line.Feeder2_end Bus1=2_609 Bus2=2_610 units=m Linecode=Line_MV_185 Length=1


New Line.Lateral2_start_3 Bus1=2_609 Bus2=2_611 units=m Linecode=Line_MV_95 Length=1 
New Line.Lateral2.612 Bus1=2_611 Bus2=2_612 units=m Linecode=Line_MV_95 Length=1 
New Line.Lateral2.613 Bus1=2_612 Bus2=2_613 units=m Linecode=Line_MV_95 Length=1 
New Line.Lateral2.614 Bus1=2_613 Bus2=2_614 units=m Linecode=Line_MV_95 Length=1 
New Line.Lateral2.615 Bus1=2_614 Bus2=2_615 units=m Linecode=Line_MV_95 Length=1 
New Line.Lateral2.616 Bus1=2_615 Bus2=2_616 units=m Linecode=Line_MV_95 Length=1 
New Line.Lateral2.617 Bus1=2_616 Bus2=2_617 units=m Linecode=Line_MV_95 Length=1
New Line.Lateral2.618 Bus1=2_617 Bus2=2_618 units=m Linecode=Line_MV_95 Length=1 
New Line.Lateral2.619 Bus1=2_618 Bus2=2_619 units=m Linecode=Line_MV_95 Length=1 
New Line.Lateral2.620 Bus1=2_619 Bus2=2_620 units=m Linecode=Line_MV_95 Length=1 
New Line.Lateral2.621 Bus1=2_620 Bus2=2_621 units=m Linecode=Line_MV_95 Length=1 
New Line.Lateral2.622 Bus1=2_621 Bus2=2_622 units=m Linecode=Line_MV_95 Length=1 
New Line.Lateral2.623 Bus1=2_622 Bus2=2_623 units=m Linecode=Line_MV_95 Length=1 
New Line.Lateral2.624 Bus1=2_623 Bus2=2_624 units=m Linecode=Line_MV_95 Length=1
New Line.Lateral2.625 Bus1=2_624 Bus2=2_625 units=m Linecode=Line_MV_95 Length=1 
New Line.Lateral2.626 Bus1=2_625 Bus2=2_626 units=m Linecode=Line_MV_95 Length=1 
New Line.Lateral2.627 Bus1=2_626 Bus2=2_627 units=m Linecode=Line_MV_95 Length=1 
New Line.Lateral2.628 Bus1=2_627 Bus2=2_628 units=m Linecode=Line_MV_95 Length=1 
New Line.Lateral2.629 Bus1=2_628 Bus2=2_639 units=m Linecode=Line_MV_95 Length=1 
New Line.Lateral2.630 Bus1=2_629 Bus2=2_630 units=m Linecode=Line_MV_95 Length=1 
New Line.Lateral2.631 Bus1=2_630 Bus2=2_631 units=m Linecode=Line_MV_95 Length=1 
New Line.Lateral2.632 Bus1=2_631 Bus2=2_632 units=m Linecode=Line_MV_95 Length=1 
New Line.Lateral2.633 Bus1=2_632 Bus2=2_633 units=m Linecode=Line_MV_95 Length=1 
New Line.Lateral2.634 Bus1=2_633 Bus2=2_634 units=m Linecode=Line_MV_95 Length=1 
New Line.Lateral2.635 Bus1=2_634 Bus2=2_635 units=m Linecode=Line_MV_95 Length=1 
New Line.Lateral2.636 Bus1=2_635 Bus2=2_636 units=m Linecode=Line_MV_95 Length=1 
New Line.Lateral2.637 Bus1=2_636 Bus2=2_637 units=m Linecode=Line_MV_95 Length=1 
New Line.Lateral2.638 Bus1=2_637 Bus2=2_638 units=m Linecode=Line_MV_95 Length=1 
New Line.Lateral2.639 Bus1=2_638 Bus2=2_639 units=m Linecode=Line_MV_95 Length=1 
New Line.Lateral2.640 Bus1=2_639 Bus2=2_640 units=m Linecode=Line_MV_95 Length=1 
New Line.Lateral2.641 Bus1=2_640 Bus2=2_641 units=m Linecode=Line_MV_95 Length=1 
New Line.Lateral2.642 Bus1=2_641 Bus2=2_642 units=m Linecode=Line_MV_95 Length=1 
New Line.Lateral2.643 Bus1=2_642 Bus2=2_643 units=m Linecode=Line_MV_95 Length=1 
New Line.Lateral2.644 Bus1=2_643 Bus2=2_644 units=m Linecode=Line_MV_95 Length=1 
New Line.Lateral2.645 Bus1=2_644 Bus2=2_645 units=m Linecode=Line_MV_95 Length=1 
New Line.Lateral2.646 Bus1=2_645 Bus2=2_646 units=m Linecode=Line_MV_95 Length=1 
New Line.Lateral2.647 Bus1=2_646 Bus2=2_647 units=m Linecode=Line_MV_95 Length=1 
New Line.Lateral2.648 Bus1=2_647 Bus2=2_648 units=m Linecode=Line_MV_95 Length=1 
New Line.Lateral2.649 Bus1=2_648 Bus2=2_649 units=m Linecode=Line_MV_95 Length=1 
New Line.Lateral2.650 Bus1=2_649 Bus2=2_650 units=m Linecode=Line_MV_95 Length=1 
New Line.Lateral2.651 Bus1=2_650 Bus2=2_651 units=m Linecode=Line_MV_95 Length=1 
New Line.Lateral2.652 Bus1=2_651 Bus2=2_652 units=m Linecode=Line_MV_95 Length=1 
New Line.Lateral2.653 Bus1=2_652 Bus2=2_653 units=m Linecode=Line_MV_95 Length=1 
New Line.Lateral2.654 Bus1=2_653 Bus2=2_654 units=m Linecode=Line_MV_95 Length=1
New Line.Lateral2.655 Bus1=2_654 Bus2=2_655 units=m Linecode=Line_MV_95 Length=1 
New Line.Lateral2.656 Bus1=2_655 Bus2=2_656 units=m Linecode=Line_MV_95 Length=1 
New Line.Lateral2.657 Bus1=2_656 Bus2=2_657 units=m Linecode=Line_MV_95 Length=1
New Line.Lateral2.658 Bus1=2_657 Bus2=2_658 units=m Linecode=Line_MV_95 Length=1 
New Line.Lateral2.659 Bus1=2_658 Bus2=2_659 units=m Linecode=Line_MV_95 Length=1 
New Line.Lateral2.660 Bus1=2_659 Bus2=2_660 units=m Linecode=Line_MV_95 Length=1 
New Line.Lateral2.661 Bus1=2_660 Bus2=2_661 units=m Linecode=Line_MV_95 Length=1 
New Line.Lateral2.662 Bus1=2_661 Bus2=2_662 units=m Linecode=Line_MV_95 Length=1 
New Line.Lateral2.663 Bus1=2_662 Bus2=2_663 units=m Linecode=Line_MV_95 Length=1 
New Line.Lateral2.664 Bus1=2_663 Bus2=2_664 units=m Linecode=Line_MV_95 Length=1 
New Line.Lateral2.665 Bus1=2_664 Bus2=2_665 units=m Linecode=Line_MV_95 Length=1 
New Line.Lateral2.666 Bus1=2_665 Bus2=2_666 units=m Linecode=Line_MV_95 Length=1 
New Line.Lateral2.667 Bus1=2_666 Bus2=2_667 units=m Linecode=Line_MV_95 Length=1 
New Line.Lateral2.668 Bus1=2_667 Bus2=2_668 units=m Linecode=Line_MV_95 Length=1
New Line.Lateral2.669 Bus1=2_668 Bus2=2_669 units=m Linecode=Line_MV_95 Length=1 
New Line.Lateral2.670 Bus1=2_669 Bus2=2_670 units=m Linecode=Line_MV_95 Length=1 
New Line.Lateral2.671 Bus1=2_670 Bus2=2_671 units=m Linecode=Line_MV_95 Length=1 
New Line.Lateral2.672 Bus1=2_671 Bus2=2_672 units=m Linecode=Line_MV_95 Length=1 
New Line.Lateral2.673 Bus1=2_672 Bus2=2_673 units=m Linecode=Line_MV_95 Length=1 
New Line.Lateral2.674 Bus1=2_673 Bus2=2_674 units=m Linecode=Line_MV_95 Length=1 
New Line.Lateral2.675 Bus1=2_674 Bus2=2_675 units=m Linecode=Line_MV_95 Length=1 
New Line.Lateral2.676 Bus1=2_675 Bus2=2_676 units=m Linecode=Line_MV_95 Length=1 
New Line.Lateral2.677 Bus1=2_676 Bus2=2_677 units=m Linecode=Line_MV_95 Length=1
New Line.Lateral2.678 Bus1=2_677 Bus2=2_678 units=m Linecode=Line_MV_95 Length=1 
New Line.Lateral2.679 Bus1=2_678 Bus2=2_679 units=m Linecode=Line_MV_95 Length=1 
New Line.Lateral2.680 Bus1=2_679 Bus2=2_680 units=m Linecode=Line_MV_95 Length=1 
New Line.Lateral2.681 Bus1=2_680 Bus2=2_681 units=m Linecode=Line_MV_95 Length=1 
New Line.Lateral2.682 Bus1=2_681 Bus2=2_682 units=m Linecode=Line_MV_95 Length=1 
New Line.Lateral2.683 Bus1=2_682 Bus2=2_683 units=m Linecode=Line_MV_95 Length=1 
New Line.Lateral2.684 Bus1=2_683 Bus2=2_684 units=m Linecode=Line_MV_95 Length=1 
New Line.Lateral2.685 Bus1=2_684 Bus2=2_685 units=m Linecode=Line_MV_95 Length=1 
New Line.Lateral2.686 Bus1=2_685 Bus2=2_686 units=m Linecode=Line_MV_95 Length=1 
New Line.Lateral2.687 Bus1=2_686 Bus2=2_687 units=m Linecode=Line_MV_95 Length=1 
New Line.Lateral2.688 Bus1=2_687 Bus2=2_688 units=m Linecode=Line_MV_95 Length=1 
New Line.Lateral2.689 Bus1=2_688 Bus2=2_689 units=m Linecode=Line_MV_95 Length=1 
New Line.Lateral2.690 Bus1=2_689 Bus2=2_690 units=m Linecode=Line_MV_95 Length=1 
New Line.Lateral2.691 Bus1=2_690 Bus2=2_691 units=m Linecode=Line_MV_95 Length=1 
New Line.Lateral2.692 Bus1=2_691 Bus2=2_692 units=m Linecode=Line_MV_95 Length=1 
New Line.Lateral2.693 Bus1=2_692 Bus2=2_693 units=m Linecode=Line_MV_95 Length=1 
New Line.Lateral2.694 Bus1=2_693 Bus2=2_694 units=m Linecode=Line_MV_95 Length=1 
New Line.Lateral2.695 Bus1=2_694 Bus2=2_695 units=m Linecode=Line_MV_95 Length=1 
New Line.Lateral2.696 Bus1=2_695 Bus2=2_696 units=m Linecode=Line_MV_95 Length=1 
New Line.Lateral2.697 Bus1=2_696 Bus2=2_697 units=m Linecode=Line_MV_95 Length=1
New Line.Lateral2.698 Bus1=2_697 Bus2=2_698 units=m Linecode=Line_MV_95 Length=1 
New Line.Lateral2.699 Bus1=2_698 Bus2=2_699 units=m Linecode=Line_MV_95 Length=1 
New Line.Lateral2.700 Bus1=2_699 Bus2=2_700 units=m Linecode=Line_MV_95 Length=1 
New Line.Lateral2.701 Bus1=2_700 Bus2=2_701 units=m Linecode=Line_MV_95 Length=1 
New Line.Lateral2.702 Bus1=2_701 Bus2=2_702 units=m Linecode=Line_MV_95 Length=1 
New Line.Lateral2.703 Bus1=2_702 Bus2=2_703 units=m Linecode=Line_MV_95 Length=1 
New Line.Lateral2.704 Bus1=2_703 Bus2=2_704 units=m Linecode=Line_MV_95 Length=1 
New Line.Lateral2.705 Bus1=2_704 Bus2=2_705 units=m Linecode=Line_MV_95 Length=1 
New Line.Lateral2.706 Bus1=2_705 Bus2=2_706 units=m Linecode=Line_MV_95 Length=1 
New Line.Lateral2.707 Bus1=2_706 Bus2=2_707 units=m Linecode=Line_MV_95 Length=1 
New Line.Lateral2.708 Bus1=2_707 Bus2=2_708 units=m Linecode=Line_MV_95 Length=1 
New Line.Lateral2.709 Bus1=2_708 Bus2=2_709 units=m Linecode=Line_MV_95 Length=1 
New Line.Lateral2.710 Bus1=2_709 Bus2=2_710 units=m Linecode=Line_MV_95 Length=1 
New Line.Lateral2.711 Bus1=2_709 Bus2=2_711 units=m Linecode=Line_MV_95 Length=1 
New Line.Lateral2.712 Bus1=2_711 Bus2=2_712 units=m Linecode=Line_MV_95 Length=1 
New Line.Lateral2.713 Bus1=2_712 Bus2=2_713 units=m Linecode=Line_MV_95 Length=1 
New Line.Lateral2.714 Bus1=2_713 Bus2=2_714 units=m Linecode=Line_MV_95 Length=1 
New Line.Lateral2.715 Bus1=2_714 Bus2=2_715 units=m Linecode=Line_MV_95 Length=1 
New Line.Lateral2.716 Bus1=2_715 Bus2=2_716 units=m Linecode=Line_MV_95 Length=1 
New Line.Lateral2.717 Bus1=2_716 Bus2=2_717 units=m Linecode=Line_MV_95 Length=1
New Line.Lateral2.718 Bus1=2_717 Bus2=2_718 units=m Linecode=Line_MV_95 Length=1 
New Line.Lateral2.719 Bus1=2_718 Bus2=2_719 units=m Linecode=Line_MV_95 Length=1 
New Line.Lateral2.720 Bus1=2_719 Bus2=2_720 units=m Linecode=Line_MV_95 Length=1 
New Line.Lateral2.721 Bus1=2_720 Bus2=2_721 units=m Linecode=Line_MV_95 Length=1 
New Line.Lateral2.722 Bus1=2_721 Bus2=2_722 units=m Linecode=Line_MV_95 Length=1 
New Line.Lateral2.723 Bus1=2_722 Bus2=2_723 units=m Linecode=Line_MV_95 Length=1 
New Line.Lateral2.724 Bus1=2_723 Bus2=2_724 units=m Linecode=Line_MV_95 Length=1
New Line.Lateral2.725 Bus1=2_724 Bus2=2_725 units=m Linecode=Line_MV_95 Length=1 
New Line.Lateral2.726 Bus1=2_725 Bus2=2_726 units=m Linecode=Line_MV_95 Length=1 
New Line.Lateral2.727 Bus1=2_726 Bus2=2_727 units=m Linecode=Line_MV_95 Length=1 
New Line.Lateral2.728 Bus1=2_727 Bus2=2_728 units=m Linecode=Line_MV_95 Length=1 
New Line.Lateral2.729 Bus1=2_728 Bus2=2_739 units=m Linecode=Line_MV_95 Length=1 
New Line.Lateral2.730 Bus1=2_729 Bus2=2_730 units=m Linecode=Line_MV_95 Length=1 
New Line.Lateral2.731 Bus1=2_730 Bus2=2_731 units=m Linecode=Line_MV_95 Length=1 
New Line.Lateral2.732 Bus1=2_731 Bus2=2_732 units=m Linecode=Line_MV_95 Length=1 
New Line.Lateral2.733 Bus1=2_732 Bus2=2_733 units=m Linecode=Line_MV_95 Length=1 
...